ipss.test.plugin.core/testData/psse/V32/aeso/2013_WNL.raw
0,   100.00, 33, 0, 1, 60.00     / PSS(R)E-33.4    THU, JUN 27 2013   0:35
TASMO MODEL; OUTPUT GENERATED 2012-09-18 09:25:57
SWINGBUS 1520 FOR 2012LPBL-1:2012-12-01:1:203--1-0-0-0
     1,'JUDY515S    ',  69.0000,1,  26,  99,  17,1.05993,   2.9843,1.10000,0.90000,1.10000,0.90000
     2,'MAYERTH     ', 138.0000,1,  40,  99,  17,1.03105,   5.9135,1.10000,0.90000,1.10000,0.90000
     3,'COLINTO7    ', 138.0000,1,  27,  99,  17,1.03005,   4.5434,1.10000,0.90000,1.10000,0.90000
     4,'WESTLOC7    ', 138.0000,1,  27,  99,  17,1.03121,   6.8040,1.10000,0.90000,1.10000,0.90000
     5,'CLYDE  7    ', 138.0000,1,  27,  99,  17,1.03048,   6.3629,1.10000,0.90000,1.10000,0.90000
     6,'DICKSOA9    ',   4.1600,1,  39,  99,   7,1.04693,  -0.2526,1.10000,0.90000,1.10000,0.90000
     7,'BOYLE  7    ', 138.0000,1,  27,  99,  17,1.03457,   3.9021,1.10000,0.90000,1.10000,0.90000
     8,'WHI 3647    ', 138.0000,1,  26,  99,  17,1.03774,   5.0162,1.10000,0.90000,1.10000,0.90000
     9,'WHITECO7    ', 138.0000,1,  26,  99,  17,1.03748,   4.6760,1.10000,0.90000,1.10000,0.90000
    10,'WHITECO8    ',  69.0000,1,  26,  99,  17,1.06335,   5.4623,1.10000,0.90000,1.10000,0.90000
    11,'JUDY CR8    ',  69.0000,1,  26,  99,  17,1.06019,   2.9865,1.10000,0.90000,1.10000,0.90000
    12,'FOX CREE    ', 138.0000,1,  24,  99,  17,1.03790,   2.9908,1.10000,0.90000,1.10000,0.90000
    13,'KAYBOB 7    ', 138.0000,1,  24,  99,  17,1.02478,   3.7426,1.10000,0.90000,1.10000,0.90000
    14,'WESGEN 9    ',  13.8000,2,  27,  99,   4,1.02500,  10.9524,1.10000,0.90000,1.10000,0.90000
    15,'MTN COA7    ', 138.0000,1,  29,  99,  17,1.01964,   6.6362,1.10000,0.90000,1.10000,0.90000
    16,'FLATBUS7    ', 138.0000,1,  27,  99,  17,1.03398,   7.5198,1.10000,0.90000,1.10000,0.90000
    17,'COLD CR7    ', 138.0000,1,  29,  99,  17,1.01647,   6.4181,1.10000,0.90000,1.10000,0.90000
    18,'GULF RO7    ', 138.0000,1,  29,  99,  17,1.02283,   6.6863,1.10000,0.90000,1.10000,0.90000
    19,'WESGEN T    ', 138.0000,1,  27,  99,  17,1.03552,   7.6258,1.10000,0.90000,1.10000,0.90000
    20,'EDSON  7    ', 138.0000,1,  29,  99,  17,1.03457,   7.1089,1.10000,0.90000,1.10000,0.90000
    21,'WESGEN 7    ', 138.0000,1,  27,  99,   4,1.03678,   8.0322,1.10000,0.90000,1.10000,0.90000
    26,'ENTWIST7    ', 138.0000,1,  40,  99,  17,1.02541,   7.1613,1.10000,0.90000,1.10000,0.90000
    27,'WABAMUN8    ',  69.0000,1,  40,  99,  17,1.02670,   9.6250,1.10000,0.90000,1.10000,0.90000
    31,'FINCAST7    ', 138.0000,1,  52,  99,  17,1.00597,   3.5102,1.10000,0.90000,1.10000,0.90000
    32,'ONOWAY 8    ',  69.0000,1,  40,  99,  17,1.02729,   9.5960,1.10000,0.90000,1.10000,0.90000
    33,'BRAZEAA9    ',  13.2000,2,  30,  99,  17,1.02092,   3.9707,1.10000,0.90000,1.10000,0.90000
    35,'LODGEPO7    ', 138.0000,1,  30,  99,  17,1.02325,   5.3468,1.10000,0.90000,1.10000,0.90000
    36,'BRAZEAU7    ', 138.0000,1,  30,  99,  17,1.03258,   4.8079,1.10000,0.90000,1.10000,0.90000
    37,'HRT EXP7    ', 138.0000,1,  32,  99,  25,1.04368,   4.1527,1.10000,0.90000,1.10000,0.90000
    38,'BRAZ OUT    ', 138.0000,1,  30,  99,  17,1.02638,   4.4881,1.10000,0.90000,1.10000,0.90000
    39,'CYNTHIA7    ', 138.0000,1,  30,  99,  17,1.02843,   4.7828,1.10000,0.90000,1.10000,0.90000
    40,'N CALDE7    ', 138.0000,1,  60,  99,  17,1.03578,   7.5861,1.10000,0.90000,1.10000,0.90000
    41,'N BARRH7    ', 138.0000,1,  40,  99,  17,1.03517,   7.4680,1.10000,0.90000,1.10000,0.90000
    42,'AMOCO BR    ', 138.0000,1,  30,  99,  17,1.01793,   4.1034,1.10000,0.90000,1.10000,0.90000
    43,'SCOTF_4     ', 138.0000,2,  33,  99,  29,1.02208,   7.9944,1.10000,0.90000,1.10000,0.90000
    44,'FT ASBN7    ', 138.0000,1,  40,  99,  17,1.04543,   5.6616,1.10000,0.90000,1.10000,0.90000
    47,'SHERWOO7    ', 138.0000,1,  60,  99,  17,1.02572,   7.4249,1.10000,0.90000,1.10000,0.90000
    48,'DIAM SH7    ', 138.0000,1,  33,  99,  17,1.02281,   8.0243,1.10000,0.90000,1.10000,0.90000
    49,'KEYSTON7    ', 138.0000,1,  30,  99,  17,1.01726,  10.4962,1.10000,0.90000,1.10000,0.90000
    50,'RIVERSID    ', 138.0000,2,  33,  99, 211,1.02561,   7.7945,1.10000,0.90000,1.10000,0.90000
    51,'W PEMBI7    ', 138.0000,1,  30,  99,  17,1.01926,   4.1845,1.10000,0.90000,1.10000,0.90000
    52,'BLUERIDG    ', 138.0000,1,  26,  99,  17,1.03416,   5.0431,1.10000,0.90000,1.10000,0.90000
    53,'SANDYPT7    ', 138.0000,1,  48,  99,  17,1.02228,   3.1361,1.10000,0.90000,1.10000,0.90000
    55,'GULF OI7    ', 138.0000,1,  60,  99,  17,1.02981,   7.5311,1.10000,0.90000,1.10000,0.90000
    56,'IPPL ED7    ', 138.0000,1,  60,  99,  17,1.03053,   7.5608,1.10000,0.90000,1.10000,0.90000
    57,'LAMOURE4    ', 240.0000,1,  33,  99,  17,1.04666,   8.9592,1.10000,0.90000,1.10000,0.90000
    58,'FORT SA7    ', 138.0000,1,  60,  99,  17,1.02812,   7.8426,1.10000,0.90000,1.10000,0.90000
    59,'REDWATE7    ', 138.0000,1,  33,  99,  17,1.01845,   7.4339,1.10000,0.90000,1.10000,0.90000
    60,'BEAMER 7    ', 138.0000,1,  33,  99,  17,1.02089,   7.7026,1.10000,0.90000,1.10000,0.90000
    61,'UN CARB9    ', 138.0000,2,  33,  99, 191,1.03000,   7.9847,1.10000,0.90000,1.10000,0.90000
    62,'SHERRIT7    ', 138.0000,1,  33,  99,  17,1.02951,   7.8542,1.10000,0.90000,1.10000,0.90000
    63,'LAMOURE7    ', 138.0000,1,  33,  99,  17,1.03372,   7.9868,1.10000,0.90000,1.10000,0.90000
    64,'BANFF  7    ', 138.0000,1,  44,  99,  17,1.01889,  -5.2036,1.10000,0.90000,1.10000,0.90000
    65,'BARDO  7    ', 138.0000,1,  31,  99,  17,1.02261,   5.6576,1.10000,0.90000,1.10000,0.90000
    66,'IOL 737L    ', 138.0000,1,  60,  99,  17,1.02899,   7.4879,1.10000,0.90000,1.10000,0.90000
    67,'BRUDERH7    ', 138.0000,1,  33,  99,  17,1.03036,   7.7783,1.10000,0.90000,1.10000,0.90000
    68,'N HOLDE7    ', 138.0000,1,  56,  99,  17,1.03105,   5.8163,1.10000,0.90000,1.10000,0.90000
    69,'IOL 738L    ', 138.0000,1,  60,  99,  17,1.02435,   7.1959,1.10000,0.90000,1.10000,0.90000
    70,'CAMROSE7    ', 138.0000,1,  31,  99,  17,1.01617,   5.0337,1.10000,0.90000,1.10000,0.90000
    71,'JARROW 8    ',  69.0000,1,  32,  99,  17,1.06146,   5.3462,1.10000,0.90000,1.10000,0.90000
    72,'JARROW 7    ', 138.0000,1,  32,  99,  17,1.04327,   5.3788,1.10000,0.90000,1.10000,0.90000
    73,'HARDIST7    ', 138.0000,1,  32,  99,  17,1.04433,   4.1216,1.10000,0.90000,1.10000,0.90000
    74,'METIS647    ', 138.0000,1,  37,  99,  17,1.02230,   6.4964,1.10000,0.90000,1.10000,0.90000
    75,'HUGHEND7    ', 138.0000,1,  37,  99,  17,1.02875,   5.1074,1.10000,0.90000,1.10000,0.90000
    76,'IPPL ST7    ', 138.0000,1,  56,  99,  17,1.05091,   8.8065,1.10000,0.90000,1.10000,0.90000
    77,'WAINWRI8    ',  69.0000,1,  32,  99,  17,1.06245,   5.2309,1.10000,0.90000,1.10000,0.90000
    78,'SEDGEWI7    ', 138.0000,1,  32,  99,  17,1.04872,   7.8648,1.10000,0.90000,1.10000,0.90000
    79,'BUFFALO7    ', 138.0000,1,  32,  99,  17,1.03985,   3.1679,1.10000,0.90000,1.10000,0.90000
    80,'BUCKLAK7    ', 138.0000,1,  30,  99,  17,1.01935,   7.0501,1.10000,0.90000,1.10000,0.90000
    81,'BIGSTON4    ', 240.0000,1,  31,  99,  17,1.03314,   8.6761,1.10000,0.90000,1.10000,0.90000
    82,'CHEVRON7    ', 138.0000,1,  24,  99,  17,1.02453,   3.7337,1.10000,0.90000,1.10000,0.90000
    83,'RBCUPIL7    ', 138.0000,1,  17,  99,  21,1.08672,   5.7835,1.10000,0.90000,1.10000,0.90000
    85,'MILLAR 7    ', 138.0000,1,  26,  99,  17,1.02019,   4.4917,1.10000,0.90000,1.10000,0.90000
    86,'PROVOST7    ', 138.0000,1,  37,  99,  17,1.01233,   6.0855,1.10000,0.90000,1.10000,0.90000
    87,'METIS644    ', 240.0000,1,  37,  99,  17,1.06005,   9.4988,1.10000,0.90000,1.10000,0.90000
    88,'BICKERD7    ', 138.0000,1,  29,  99,  17,1.03475,   7.7061,1.10000,0.90000,1.10000,0.90000
    89,'E EDMON7    ', 138.0000,1,  60,  99,  17,1.03120,   7.5957,1.10000,0.90000,1.10000,0.90000
    90,'BICKERD4    ', 240.0000,1,  29,  99,  17,1.08467,   9.4783,1.10000,0.90000,1.10000,0.90000
    91,'NISKU  7    ', 138.0000,1,  60,  99,  17,1.02347,   5.4091,1.10000,0.90000,1.10000,0.90000
    93,'WETASKI7    ', 138.0000,1,  31,  99,  17,1.03082,   5.2668,1.10000,0.90000,1.10000,0.90000
    94,'ERVICK 7    ', 138.0000,1,  31,  99,  17,1.01812,   4.9984,1.10000,0.90000,1.10000,0.90000
    95,'PONOKA 7    ', 138.0000,1,  31,  99,  17,1.00796,   3.3947,1.10000,0.90000,1.10000,0.90000
    96,'DEVON  7    ', 138.0000,1,  60,  99,  17,1.01897,   5.4420,1.10000,0.90000,1.10000,0.90000
    97,'ECKVILL7    ', 138.0000,1,  35,  99,  17,1.02345,   2.6936,1.10000,0.90000,1.10000,0.90000
    98,'RIMBEY 7    ', 138.0000,1,  35,  99,  17,1.01323,   2.2466,1.10000,0.90000,1.10000,0.90000
    99,'BENALTO7    ', 138.0000,1,  35,  99,  17,1.03090,   3.0320,1.10000,0.90000,1.10000,0.90000
   100,'ROCKY M7    ', 138.0000,1,  38,  99,  17,1.00678,   0.9599,1.10000,0.90000,1.10000,0.90000
   101,'COOKING7    ', 138.0000,1,  60,  99,  17,1.02160,   6.2614,1.10000,0.90000,1.10000,0.90000
   102,'BIGHORN1    ',  13.8000,2,  34,  99,  17,0.98557,   3.0705,1.10000,0.90000,1.10000,0.90000
   103,'BIG HOR7    ', 138.0000,1,  34,  99,  17,1.00528,   3.0705,1.10000,0.90000,1.10000,0.90000
   104,'STRACHA7    ', 138.0000,1,  38,  99,  17,1.00667,   0.2887,1.10000,0.90000,1.10000,0.90000
   105,'PIGEON 7    ', 138.0000,1,  31,  99,  17,1.02783,   5.4378,1.10000,0.90000,1.10000,0.90000
   106,'DEERLAN7    ', 138.0000,1,  33,  99,  17,1.03587,   7.8530,1.10000,0.90000,1.10000,0.90000
   107,'SUNDRE 7    ', 138.0000,1,  38,  99,  17,0.98078,  -1.3477,1.10000,0.90000,1.10000,0.90000
   108,'BIGHORN2    ',  13.8000,2,  34,  99,  17,0.97200,   7.0510,1.10000,0.90000,1.10000,0.90000
   109,'DEERLAN4    ', 240.0000,1,  33,  99,  17,1.05885,   8.7594,1.10000,0.90000,1.10000,0.90000
   110,'IPL EDM7    ', 138.0000,1,  60,  99,  17,1.03053,   7.5602,1.10000,0.90000,1.10000,0.90000
   111,'SANDHIL7    ', 138.0000,1,  48,  99,  17,1.02224,   3.1175,1.10000,0.90000,1.10000,0.90000
   112,'SUNKEN7     ', 138.0000,1,  37,  99,  17,1.02229,   6.4753,1.10000,0.90000,1.10000,0.90000
   113,'BLACKFA7    ', 138.0000,1,  35,  99,  17,1.00512,   2.6636,1.10000,0.90000,1.10000,0.90000
   114,'LACOMBE7    ', 138.0000,1,  35,  99,  17,1.00227,   2.7348,1.10000,0.90000,1.10000,0.90000
   115,'S RED DE    ', 138.0000,1,  35,  99,  17,1.01292,   2.8093,1.10000,0.90000,1.10000,0.90000
   116,'W LACOMB    ', 138.0000,1,  35,  99,  17,1.00452,   2.8214,1.10000,0.90000,1.10000,0.90000
   117,'RED DE A    ', 138.0000,1,  35,  99,  17,1.01595,   2.9515,1.10000,0.90000,1.10000,0.90000
   118,'RED DE B    ', 138.0000,1,  35,  99,  17,1.01595,   2.9515,1.10000,0.90000,1.10000,0.90000
   119,'N RED D7    ', 138.0000,1,  35,  99,  17,1.01120,   2.7663,1.10000,0.90000,1.10000,0.90000
   120,'INNISFA7    ', 138.0000,1,  39,  99,  17,1.00121,   0.9991,1.10000,0.90000,1.10000,0.90000
   121,'OLDS   7    ', 138.0000,1,  39,  99,  17,0.98913,  -1.1088,1.10000,0.90000,1.10000,0.90000
   122,'MADDEN 7    ', 138.0000,1,  39,  99,  17,0.99053,  -2.8090,1.10000,0.90000,1.10000,0.90000
   123,'DIDSBURY    ', 138.0000,1,  39,  99,  17,0.99069,  -1.8570,1.10000,0.90000,1.10000,0.90000
   124,'HARMATT7    ', 138.0000,1,  39,  99,  17,0.98989,  -1.8927,1.10000,0.90000,1.10000,0.90000
   125,'YASAA7      ', 138.0000,1,  60,  99,  17,1.03016,   7.5487,1.10000,0.90000,1.10000,0.90000
   126,'SHELL H7    ', 138.0000,1,  39,  99,  17,0.98965,  -1.9097,1.10000,0.90000,1.10000,0.90000
   127,'BEDDING2    ', 138.0000,1,   6,  99,   3,1.03289,  -1.5312,1.10000,0.90000,1.10000,0.90000
   128,'ELLERSLI    ', 240.0000,1,  60,  99,  17,1.04782,  11.8654,1.10000,0.90000,1.10000,0.90000
   130,'SUND#3GN    ',  20.0000,2,  40,  99,  17,1.02000,  20.9254,1.10000,0.90000,1.10000,0.90000
   131,'SUNDANA8    ',  69.0000,1,  40,  99,  17,1.01359,  11.3182,1.10000,0.90000,1.10000,0.90000
   132,'SUNDANC7    ', 138.0000,1,  40,  99,  17,1.02836,  13.1291,1.10000,0.90000,1.10000,0.90000
   133,'WABAMUN4    ', 240.0000,1,  40,  99,  17,1.06962,  11.8350,1.10000,0.90000,1.10000,0.90000
   134,'WABAMUN7    ', 138.0000,1,  40,  99,  17,1.03236,   9.3780,1.10000,0.90000,1.10000,0.90000
   135,'SUNDANC4    ', 240.0000,1,  40,  99,  17,1.07875,  13.1814,1.10000,0.90000,1.10000,0.90000
   136,'E EDMON4    ', 240.0000,1,  60,  99,  17,1.04202,  10.9042,1.10000,0.90000,1.10000,0.90000
   137,'N CALDE4    ', 240.0000,1,  60,  99,  17,1.04408,   9.7220,1.10000,0.90000,1.10000,0.90000
   138,'N BARRH4    ', 240.0000,1,  40,  99,  17,1.09702,   9.1154,1.10000,0.90000,1.10000,0.90000
   141,'DALEHUR7    ', 138.0000,1,  29,  99,  17,1.02031,   6.6799,1.10000,0.90000,1.10000,0.90000
   142,'KINGMAN7    ', 138.0000,1,  31,  99,  17,1.01931,   5.3795,1.10000,0.90000,1.10000,0.90000
   144,'ALGAR  7    ', 138.0000,1,  61,  99,   1,1.07711,  11.4518,1.10000,0.90000,1.10000,0.90000
   147,'GAETZ  4    ', 240.0000,1,  35,  99,  17,1.03456,   5.2632,1.10000,0.90000,1.10000,0.90000
   148,'GAETZ  7    ', 138.0000,1,  35,  99,  17,1.01259,   2.9043,1.10000,0.90000,1.10000,0.90000
   150,'WILLESD4    ', 240.0000,1,  30,  99,  17,1.06395,   5.8786,1.10000,0.90000,1.10000,0.90000
   151,'BRAZ#1 9    ',  13.8000,2,  30,  99,  17,1.02500,   5.8191,1.10000,0.90000,1.10000,0.90000
   152,'RED DEE4    ', 240.0000,1,  35,  99,  17,1.04419,   5.3602,1.10000,0.90000,1.10000,0.90000
   153,'BRAZEAU4    ', 240.0000,1,  30,  99,  17,1.06451,   5.6058,1.10000,0.90000,1.10000,0.90000
   154,'BRAZ#2 9    ',  13.8000,2,  30,  99,  17,0.99339,   5.6058,1.10000,0.90000,1.10000,0.90000
   155,'BENALTO4    ', 240.0000,1,  35,  99,  17,1.06021,   6.6939,1.10000,0.90000,1.10000,0.90000
   156,'E CROSS4    ', 240.0000,1,  57,  99,  17,1.04724,   1.9400,1.10000,0.90000,1.10000,0.90000
   157,'COCHIN 8    ',  69.0000,1,  32,  99, 241,1.06232,   5.2274,1.10000,0.90000,1.10000,0.90000
   158,'LANGDON2    ', 500.0000,1,   6,  99,  17,1.04633,   1.1517,1.10000,0.90000,1.10000,0.90000
   159,'LANGDON4    ', 240.0000,1,   6,  99,  17,1.05400,   1.3284,1.10000,0.90000,1.10000,0.90000
   160,'JANET  4    ', 240.0000,1,   6,  99,  17,1.04229,   0.8105,1.10000,0.90000,1.10000,0.90000
   161,'SARCEE 4    ', 240.0000,1,   6,  99,  17,1.03722,  -0.0968,1.10000,0.90000,1.10000,0.90000
   162,'E CALGAR    ', 240.0000,1,   6,  99,  17,1.02922,   0.0891,1.10000,0.90000,1.10000,0.90000
   163,'SAGITAW4    ', 240.0000,1,  26,  99,  17,1.05925,   6.6908,1.10000,0.90000,1.10000,0.90000
   164,'SAGITAW7    ', 138.0000,1,  26,  99,  17,1.03959,   5.3500,1.10000,0.90000,1.10000,0.90000
   165,'PEIGAN 4    ', 240.0000,1,  53,  99, 191,1.04120,   6.3133,1.10000,0.90000,1.10000,0.90000
   166,'PEIGAN 7    ', 138.0000,1,  53,  99, 191,1.02102,   9.0671,1.10000,0.90000,1.10000,0.90000
   167,'N LETHB4    ', 240.0000,1,  54,  99,  17,1.04615,   5.1781,1.10000,0.90000,1.10000,0.90000
   168,'SUNSHIN8    ',  69.0000,1,  44,  99,  17,0.98909, -10.7858,1.10000,0.90000,1.10000,0.90000
   169,'CAN CEM7    ', 138.0000,1,  44,  99,  17,1.02017,  -4.5499,1.10000,0.90000,1.10000,0.90000
   170,'COCHRAN7    ', 138.0000,1,  44,  99,  17,1.00522,  -4.0745,1.10000,0.90000,1.10000,0.90000
   171,'SEEBE  7    ', 138.0000,1,  44,  99, 191,1.01960,  -4.1380,1.10000,0.90000,1.10000,0.90000
   172,'HORS GEN    ',  12.0000,2,  44,  99,  17,1.02500,  -2.6550,1.10000,0.90000,1.10000,0.90000
   173,'BRETV A7    ', 138.0000,1,  60,  99,  17,1.02978,   7.5310,1.10000,0.90000,1.10000,0.90000
   174,'SPRAY G1    ',  13.2000,2,  44,  99,  17,1.04663,  -2.2925,1.10000,0.90000,1.10000,0.90000
   175,'CASCADE7    ', 138.0000,1,  44,  99, 194,1.02117,  -5.0877,1.10000,0.90000,1.10000,0.90000
   176,'CASCADE9    ',  13.2000,2,  44,  99, 194,1.03592,  -5.0887,1.10000,0.90000,1.10000,0.90000
   177,'AIRDRIE     ', 138.0000,1,  57,  99,  17,1.02491,  -1.3630,1.10000,0.90000,1.10000,0.90000
   178,'BANFF  8    ',  69.0000,1,  44,  99,  17,0.99412, -10.5329,1.10000,0.90000,1.10000,0.90000
   179,'MARIANA7    ', 138.0000,1,  61,  99,   1,1.07945,  10.9376,1.10000,0.90000,1.10000,0.90000
   180,'GHOST  7    ', 138.0000,1,  44,  99,  17,1.00982,  -3.9805,1.10000,0.90000,1.10000,0.90000
   181,'GHOST A9    ',  13.2000,2,  44,  99,  17,1.00000,  -3.7335,1.10000,0.90000,1.10000,0.90000
   183,'BEARSPWB    ',  13.2000,2,  44,  99,  17,1.05094,  -3.0312,1.10000,0.90000,1.10000,0.90000
   184,'BEARSPAW    ', 138.0000,1,  44,  99,  17,1.01477,  -3.3313,1.10000,0.90000,1.10000,0.90000
   187,'BEDDING1    ', 240.0000,1,   6,  99,   3,1.03992,   0.1998,1.10000,0.90000,1.10000,0.90000
   188,'ANG COCA    ',  25.0000,1,  44,  99,  17,1.04282,  -5.6063,1.10000,0.90000,1.10000,0.90000
   189,'ANG COCB    ',  13.8000,2,  44,  99,  17,1.00594,  -8.2227,1.10000,0.90000,1.10000,0.90000
   190,'SPRAY G2    ',  13.2000,2,  44,  99,  17,1.02633,  -4.4703,1.10000,0.90000,1.10000,0.90000
   191,'ANG COCH    ', 138.0000,1,  44,  99,  17,1.00216,  -4.3980,1.10000,0.90000,1.10000,0.90000
   192,'NELSON L    ', 138.0000,1,  31,  99,  17,1.00450,   3.2321,1.10000,0.90000,1.10000,0.90000
   193,'KANANAS7    ', 138.0000,1,  44,  99,  17,1.02000,  -4.1222,1.10000,0.90000,1.10000,0.90000
   194,'LAKE LO8    ',  69.0000,1,  44,  99,  17,0.95415, -11.4147,1.10000,0.90000,1.10000,0.90000
   195,'RUNDLE S    ', 138.0000,1,  44,  99,  17,1.02585,  -4.5621,1.10000,0.90000,1.10000,0.90000
   196,'KANANAS9    ',  12.0000,2,  44,  99,  17,1.03363,  -2.9869,1.10000,0.90000,1.10000,0.90000
   197,'RUNDLE G    ',  13.8000,2,  44,  99,  17,1.04761,  -3.2729,1.10000,0.90000,1.10000,0.90000
   198,'BALZAC 7    ', 138.0000,1,   6,  99,  17,1.03311,  -1.5015,1.10000,0.90000,1.10000,0.90000
   199,'SHELL J7    ', 138.0000,1,  44,  99,  17,1.00811,  -3.8794,1.10000,0.90000,1.10000,0.90000
   201,'JUMPPND7    ', 138.0000,1,  44,  99,  17,1.01497,  -3.7791,1.10000,0.90000,1.10000,0.90000
   202,'SARCEE 7    ', 138.0000,1,   6,  99,  17,1.01609,  -2.5521,1.10000,0.90000,1.10000,0.90000
   203,'SARCEE C    ',  13.8000,1,   6,  99,  17,1.06990,  -2.6265,1.10000,0.90000,1.10000,0.90000
   204,'MCMILLA4    ', 240.0000,1,  61,  99,   1,1.12248,  11.8222,1.10000,0.90000,1.10000,0.90000
   205,'AMOCO R7    ', 138.0000,1,  38,  99,  17,0.98255,  -1.0544,1.10000,0.90000,1.10000,0.90000
   207,'JANET  7    ', 138.0000,1,   6,  99,  17,1.02064,  -1.7291,1.10000,0.90000,1.10000,0.90000
   208,'ENMX2S 7    ', 138.0000,1,   6,  99,   3,1.01911,  -2.8945,1.10000,0.90000,1.10000,0.90000
   209,'BRETONA1    ', 138.0000,1,  60,  99,  17,1.02595,   7.0562,1.10000,0.90000,1.10000,0.90000
   211,'MOUNT A7    ', 138.0000,1,  44,  99,  17,1.02413,  -4.3555,1.10000,0.90000,1.10000,0.90000
   213,'HAIGRIVE    ', 138.0000,1,  17,  99,   1,1.10024,   3.3045,1.10000,0.90000,1.10000,0.90000
   214,'POCATEA9    ',  13.8000,2,  44,  99,  17,0.97416,  -3.5560,1.10000,0.90000,1.10000,0.90000
   215,'TEX.W.P7    ', 138.0000,1,  30,  99,  17,1.02676,   4.8726,1.10000,0.90000,1.10000,0.90000
   216,'BARRIER7    ', 138.0000,1,  44,  99,  17,1.02192,  -4.2208,1.10000,0.90000,1.10000,0.90000
   218,'BLACKMUD    ', 138.0000,1,  60,  99,  17,1.02105,   5.3546,1.10000,0.90000,1.10000,0.90000
   219,'KILLARN7    ', 138.0000,1,  37,  99,  17,1.00966,   2.9190,1.10000,0.90000,1.10000,0.90000
   220,'HAYTER 7    ', 138.0000,1,  37,  99,  17,0.99498,   2.3140,1.10000,0.90000,1.10000,0.90000
   221,'CRR-W1      ', 240.0000,1,  53,  99,  58,1.03551,   6.9959,1.10000,0.90000,1.10000,0.90000
   222,'BARRIER9    ',  13.2000,2,  44,  99,  17,1.03000,  -3.3244,1.10000,0.90000,1.10000,0.90000
   223,'PINCHER8    ',  69.0000,1,  53,  99,  17,1.01263,   8.6429,1.10000,0.90000,1.10000,0.90000
   224,'PINCHER7    ', 138.0000,1,  53,  99,  17,1.04095,   8.1612,1.10000,0.90000,1.10000,0.90000
   225,'WARE JCT    ', 240.0000,1,  47,  99,  17,1.07455,   9.6819,1.10000,0.90000,1.10000,0.90000
   226,'DRYWOOD8    ',  69.0000,1,  55,  99,  17,1.01828,   6.8095,1.10000,0.90000,1.10000,0.90000
   227,'SHELL WA    ',  69.0000,1,  55,  99,  17,1.00170,   6.8082,1.10000,0.90000,1.10000,0.90000
   228,'YARROW 8    ',  69.0000,1,  55,  99,  17,1.01819,   6.8069,1.10000,0.90000,1.10000,0.90000
...
0 / END OF BUS DATA, BEGIN LOAD DATA
     9,'99',1,  26,  99,     0.125,     0.062,     0.000,     0.000,     0.000,     0.000,  17,1,0
    14,'99',1,  27,  99,     0.053,     0.027,     0.000,     0.000,     0.000,     0.000,   4,1,0
    33,'99',1,  30,  99,     2.173,     1.087,     0.000,     0.000,     0.000,     0.000,  17,1,0
    43,'37',1,  33,  37,   238.686,   119.342,     0.000,     0.000,     0.000,     0.000,  29,1,0
    50,'37',1,  33,  37,    13.647,     6.824,     0.000,     0.000,     0.000,     0.000, 211,1,0
    50,'99',1,  33,  99,     8.654,     4.330,     0.000,     0.000,     0.000,     0.000, 211,1,0
    61,'37',1,  33,  37,    38.461,    19.230,     0.000,     0.000,     0.000,     0.000, 191,1,0
    61,'99',1,  33,  99,    33.495,    16.759,     0.000,     0.000,     0.000,     0.000, 191,1,0
    79,'99',1,  32,  99,     0.004,     0.002,     0.000,     0.000,     0.000,     0.000,  17,1,0
    80,'99',1,  30,  99,     0.393,     0.197,     0.000,     0.000,     0.000,     0.000,  17,1,0
   106,'99',1,  33,  99,     5.380,     2.692,     0.000,     0.000,     0.000,     0.000,  17,1,0
   127,'99',1,   6,  99,     5.530,     2.767,     0.000,     0.000,     0.000,     0.000,   3,1,0
   130,'36',1,  40,  36,    23.600,    11.800,     0.000,     0.000,     0.000,     0.000,  17,1,0
   167,'99',1,  54,  99,     0.005,     0.003,     0.000,     0.000,     0.000,     0.000,  17,1,0
   176,'99',1,  44,  99,     0.394,     0.197,     0.000,     0.000,     0.000,     0.000, 194,1,0
   180,'99',1,  44,  99,     1.737,     0.869,     0.000,     0.000,     0.000,     0.000,  17,1,0
   183,'99',1,  44,  99,     0.005,     0.002,     0.000,     0.000,     0.000,     0.000,  17,1,0
   188,'99',1,  44,  99,     5.967,     2.985,     0.000,     0.000,     0.000,     0.000,  17,1,0
   189,'99',1,  44,  99,    11.116,     5.562,     0.000,     0.000,     0.000,     0.000,  17,1,0
   197,'99',1,  44,  99,     0.200,     0.100,     0.000,     0.000,     0.000,     0.000,  17,1,0
   199,'99',1,  44,  99,     6.612,     3.308,     0.000,     0.000,     0.000,     0.000,  17,1,0
   214,'99',1,  44,  99,     0.103,     0.051,     0.000,     0.000,     0.000,     0.000,  17,1,0
   222,'99',1,  44,  99,     0.065,     0.033,     0.000,     0.000,     0.000,     0.000,  17,1,0
   234,'99',1,  53,  99,     0.095,     0.048,     0.000,     0.000,     0.000,     0.000,  44,1,0
   248,'37',1,  28,  37,    27.219,    13.610,     0.000,     0.000,     0.000,     0.000,  36,1,0
   255,'99',1,  53,  99,     0.031,     0.016,     0.000,     0.000,     0.000,     0.000,  17,1,0
   265,'99',1,  53,  99,     0.031,     0.016,     0.000,     0.000,     0.000,     0.000,  17,1,0
   268,'99',1,  48,  99,     5.433,     2.718,     0.000,     0.000,     0.000,     0.000,  17,1,0
   271,'99',1,   4,  99,     0.008,     0.004,     0.000,     0.000,     0.000,     0.000,  17,1,0
   274,'99',1,  52,  99,    10.445,     5.226,     0.000,     0.000,     0.000,     0.000,  17,1,0
   287,'99',1,  48,  99,     7.761,     3.883,     0.000,     0.000,     0.000,     0.000,  17,1,0
   288,'99',1,  48,  99,     3.880,     1.942,     0.000,     0.000,     0.000,     0.000,  17,1,0
   289,'99',1,  48,  99,     5.045,     2.524,     0.000,     0.000,     0.000,     0.000,  17,1,0
   296,'99',1,  53,  99,     0.001,     0.001,     0.000,     0.000,     0.000,     0.000,  17,1,0
   305,'99',1,  27,  99,     9.163,     4.585,     0.000,     0.000,     0.000,     0.000,  17,1,0
   342,'36',1,  40,  36,    21.900,    10.900,     0.000,     0.000,     0.000,     0.000,  17,1,0
   345,'36',1,  40,  36,    21.800,    10.900,     0.000,     0.000,     0.000,     0.000,  17,1,0
   348,'99',1,  61,  99,     0.613,     0.307,     0.000,     0.000,     0.000,     0.000,  17,1,0
   350,'36',1,  40,  36,    26.400,    13.200,     0.000,     0.000,     0.000,     0.000,  17,1,0
   365,'99',1,  31,  99,     4.676,     2.340,     0.000,     0.000,     0.000,     0.000,  17,1,0
   375,'99',1,  44,  99,     0.169,     0.084,     0.000,     0.000,     0.000,     0.000,  17,1,0
   380,'99',1,  44,  99,     1.855,     0.928,     0.000,     0.000,     0.000,     0.000,  17,1,0
   383,'37',1,  35,  37,    56.694,    28.347,     0.000,     0.000,     0.000,     0.000,  17,1,0
   383,'99',1,  35,  99,    73.301,    36.676,     0.000,     0.000,     0.000,     0.000,  17,1,0
   403,'36',1,  40,  36,    42.300,    21.200,     0.000,     0.000,     0.000,     0.000,  17,1,0
   405,'36',1,  61,  36,     3.000,     1.500,     0.000,     0.000,     0.000,     0.000, 251,1,0
   405,'37',1,  61,  37,     7.695,     3.848,     0.000,     0.000,     0.000,     0.000, 251,1,0
   407,'99',1,  54,  99,     0.040,     0.020,     0.000,     0.000,     0.000,     0.000,  17,1,0
   408,'99',1,  26,  99,     0.090,     0.045,     0.000,     0.000,     0.000,     0.000,  17,1,0
   414,'99',1,  55,  99,     0.044,     0.022,     0.000,     0.000,     0.000,     0.000,  17,1,0
   422,'36',1,  40,  36,    23.100,    11.500,     0.000,     0.000,     0.000,     0.000,  17,1,0
   424,'36',1,  40,  36,    19.600,     9.800,     0.000,     0.000,     0.000,     0.000,  17,1,0
   440,'99',1,  31,  99,     0.001,     0.001,     0.000,     0.000,     0.000,     0.000,  17,1,0
   478,'99',1,  44,  99,    15.507,     7.759,     0.000,     0.000,     0.000,     0.000,  17,1,0
   479,'99',1,  44,  99,     0.200,     0.100,     0.000,     0.000,     0.000,     0.000,  17,1,0
   490,'35',1,  40,  35,    53.692,     0.000,     0.000,     0.000,     0.000,     0.000,   5,1,0
   490,'36',1,  40,  36,     9.400,     4.700,     0.000,     0.000,     0.000,     0.000,   5,1,0
   491,'36',1,  40,  36,    24.600,    12.300,     0.000,     0.000,     0.000,     0.000,   5,1,0
   492,'36',1,  40,  36,    25.000,    12.500,     0.000,     0.000,     0.000,     0.000,   5,1,0
   589,'99',1,   6,  99,     4.968,     2.486,     0.000,     0.000,     0.000,     0.000,   3,1,0
   666,'99',1,  58,  99,     0.417,     0.209,     0.000,     0.000,     0.000,     0.000,   1,1,0
   680,'35',1,   4,  35,     9.219,     0.000,     0.000,     0.000,     0.000,     0.000,  17,1,0
   680,'37',1,   4,  37,    85.378,    42.689,     0.000,     0.000,     0.000,     0.000,  17,1,0
  1029,'99',1,  17,  99,    11.243,     5.626,     0.000,     0.000,     0.000,     0.000,   1,1,0
  1031,'99',1,  17,  99,     6.283,     3.144,     0.000,     0.000,     0.000,     0.000,   1,1,0
  1032,'35',1,  17,  35,     3.389,     0.000,     0.000,     0.000,     0.000,     0.000,   1,1,0
  1032,'99',1,  17,  99,    15.543,     7.777,     0.000,     0.000,     0.000,     0.000,   1,1,0
  1035,'99',1,  17,  99,     0.097,     0.049,     0.000,     0.000,     0.000,     0.000,  21,1,0
  1037,'99',1,  17,  99,     0.005,     0.003,     0.000,     0.000,     0.000,     0.000,  21,1,0
  1050,'99',1,  19,  99,     2.274,     1.138,     0.000,     0.000,     0.000,     0.000,   1,1,0
  1089,'34',1,  19,  34,    27.000,    12.000,     0.000,     0.000,     0.000,     0.000,  33,1,0
  1101,'37',1,  20,  37,     3.778,     1.889,     0.000,     0.000,     0.000,     0.000,  30,1,0
  1146,'37',1,  20,  37,    13.842,     6.921,     0.000,     0.000,     0.000,     0.000,  39,1,0
  1148,'36',1,  22,  36,    11.600,     5.800,     0.000,     0.000,     0.000,     0.000,   1,1,0
  1167,'99',1,  23,  99,     0.025,     0.012,     0.000,     0.000,     0.000,     0.000,   1,1,0
  1168,'99',1,  23,  99,     0.033,     0.016,     0.000,     0.000,     0.000,     0.000,   1,1,0
  1171,'99',1,  23,  99,     0.314,     0.157,     0.000,     0.000,     0.000,     0.000,   1,1,0
  1173,'99',1,  23,  99,     0.314,     0.157,     0.000,     0.000,     0.000,     0.000,   1,1,0
  1205,'37',1,  59,  37,   360.472,   180.236,     0.000,     0.000,     0.000,     0.000,   9,1,0
  1208,'37',1,  59,  37,   329.730,   164.864,     0.000,     0.000,     0.000,     0.000,  10,1,0
  1231,'99',1,  21,  99,    22.469,    11.242,     0.000,     0.000,     0.000,     0.000,   1,1,0
  1232,'99',1,  21,  99,    22.469,    11.242,     0.000,     0.000,     0.000,     0.000,   1,1,0
  1236,'37',1,  59,  37,    27.662,    13.831,     0.000,     0.000,     0.000,     0.000,  40,1,0
  1236,'99',1,  59,  99,     0.417,     0.209,     0.000,     0.000,     0.000,     0.000,  40,1,0
  1241,'37',1,  61,  37,    83.109,    41.554,     0.000,     0.000,     0.000,     0.000,  99,1,0
  1251,'37',1,  58,  37,    73.249,    36.624,     0.000,     0.000,     0.000,     0.000, 261,1,0
  1262,'37',1,  58,  37,    23.131,    11.566,     0.000,     0.000,     0.000,     0.000, 261,1,0
  1274,'37',1,  58,  37,     8.871,     4.436,     0.000,     0.000,     0.000,     0.000,   1,1,0
  1289,'37',1,  59,  37,    72.928,    36.464,     0.000,     0.000,     0.000,     0.000, 481,1,0
  1301,'36',1,  28,  36,     2.600,     1.400,     0.000,     0.000,     0.000,     0.000,  63,1,0
  1301,'37',1,  28,  37,    36.807,    18.404,     0.000,     0.000,     0.000,     0.000,  63,1,0
  1301,'99',1,  28,  99,     4.661,     2.332,     0.000,     0.000,     0.000,     0.000,  63,1,0
  1302,'37',1,  28,  37,    75.613,    37.806,     0.000,     0.000,     0.000,     0.000,   1,1,0
  1383,'99',1,  13,  99,     4.563,     2.283,     0.000,     0.000,     0.000,     0.000,   1,1,0
  1471,'99',1,  42,  99,     9.024,     4.515,     0.000,     0.000,     0.000,     0.000,   1,1,0
  1473,'34',1,  48,  34,   -18.150,     0.000,     0.000,     0.000,     0.000,     0.000,   1,1,0
  1474,'99',1,  42,  99,    10.666,     5.336,     0.000,     0.000,     0.000,     0.000,   1,1,0
  1482,'36',1,  43,  36,    12.600,     6.300,     0.000,     0.000,     0.000,     0.000,   1,1,0
  1487,'36',1,  43,  36,    14.400,     7.200,     0.000,     0.000,     0.000,     0.000,   1,1,0
  1495,'36',1,  36,  36,     6.800,     3.400,     0.000,     0.000,     0.000,     0.000,   1,1,0
  1496,'36',1,  36,  36,     9.000,     4.500,     0.000,     0.000,     0.000,     0.000,   1,1,0
  1497,'36',1,  36,  36,    17.500,     8.800,     0.000,     0.000,     0.000,     0.000,   1,1,0
  1503,'34',1,  15,  34,    10.000,     3.300,     0.000,     0.000,     0.000,     0.000,   2,1,0
  1504,'34',1,  15,  34,    10.000,     3.300,     0.000,     0.000,     0.000,     0.000,   2,1,0
  1505,'34',1,  15,  34,    10.000,     3.300,     0.000,     0.000,     0.000,     0.000,   2,1,0
  1506,'34',1,  15,  34,    10.000,     3.300,     0.000,     0.000,     0.000,     0.000,   2,1,0
  1681,'99',1,  59,  99,    31.165,    15.593,     0.000,     0.000,     0.000,     0.000,  36,1,0
  1683,'99',1,  59,  99,     8.499,     4.253,     0.000,     0.000,     0.000,     0.000,  36,1,0
  1684,'99',1,  59,  99,    31.165,    15.593,     0.000,     0.000,     0.000,     0.000,  36,1,0
  2053,'99',1,  48,  99,     3.102,     1.552,     0.000,     0.000,     0.000,     0.000,  17,1,0
  2060,'99',1,  33,  99,    12.595,     6.302,     0.000,     0.000,     0.000,     0.000,  17,1,0
  2062,'99',1,  33,  99,     7.545,     3.775,     0.000,     0.000,     0.000,     0.000,  17,1,0
  2063,'99',1,  33,  99,     7.749,     3.877,     0.000,     0.000,     0.000,     0.000,  17,1,0
  2085,'99',1,  26,  99,    24.588,    12.302,     0.000,     0.000,     0.000,     0.000,  17,1,0
  2089,'99',1,  60,  99,    12.557,     6.283,     0.000,     0.000,     0.000,     0.000,  17,1,0
  2103,'99',1,  34,  99,     2.043,     1.022,     0.000,     0.000,     0.000,     0.000,  17,1,0
  2125,'99',1,  60,  99,     7.810,     3.908,     0.000,     0.000,     0.000,     0.000,  17,1,0
  2169,'99',1,  44,  99,     5.213,     2.608,     0.000,     0.000,     0.000,     0.000,  17,1,0
  2173,'99',1,  60,  99,     5.312,     2.658,     0.000,     0.000,     0.000,     0.000,  17,1,0
  2198,'99',1,   6,  99,     6.466,     3.235,     0.000,     0.000,     0.000,     0.000,  17,1,0
  2208,'99',1,   6,  99,     8.014,     4.010,     0.000,     0.000,     0.000,     0.000,   3,1,0
  2218,'99',1,  60,  99,     7.290,     3.647,     0.000,     0.000,     0.000,     0.000,  17,1,0
  2230,'35',1,  53,  35,     2.686,     0.000,     0.000,     0.000,     0.000,     0.000,   1,1,0
  2230,'99',1,  53,  99,     0.006,     0.003,     0.000,     0.000,     0.000,     0.000,   1,1,0
  2231,'99',1,  55,  99,     2.109,     1.055,     0.000,     0.000,     0.000,     0.000,  17,1,0
  2242,'99',1,  46,  99,    12.727,     6.368,     0.000,     0.000,     0.000,     0.000,  17,1,0
  2260,'99',1,  48,  99,    12.674,     6.341,     0.000,     0.000,     0.000,     0.000,  17,1,0
  2266,'99',1,  48,  99,     3.520,     1.761,     0.000,     0.000,     0.000,     0.000,  17,1,0
  2269,'99',1,  52,  99,     7.781,     3.893,     0.000,     0.000,     0.000,     0.000,  17,1,0
  2284,'99',1,   4,  99,     2.108,     1.055,     0.000,     0.000,     0.000,     0.000,  17,1,0
  2297,'99',1,  32,  99,     8.409,     4.207,     0.000,     0.000,     0.000,     0.000,  17,1,0
  2298,'99',1,  26,  99,    32.990,    16.506,     0.000,     0.000,     0.000,     0.000,  17,1,0
  2315,'99',1,  45,  99,     0.979,     0.490,     0.000,     0.000,     0.000,     0.000,  17,1,0
  2340,'99',1,  45,  99,     7.395,     3.700,     0.000,     0.000,     0.000,     0.000,  17,1,0
  2344,'99',1,  48,  99,     2.289,     1.145,     0.000,     0.000,     0.000,     0.000,  17,1,0
  2357,'99',1,  60,  99,     8.544,     4.275,     0.000,     0.000,     0.000,     0.000,  17,1,0
  2364,'99',1,  40,  99,     9.835,     4.921,     0.000,     0.000,     0.000,     0.000,  17,1,0
  2366,'99',1,  60,  99,     8.756,     4.381,     0.000,     0.000,     0.000,     0.000,  17,1,0
  2368,'99',1,  29,  99,     5.872,     2.938,     0.000,     0.000,     0.000,     0.000,  17,1,0
  2369,'99',1,  61,  99,    11.975,     5.992,     0.000,     0.000,     0.000,     0.000,  17,1,0
  2370,'99',1,  61,  99,    15.874,     7.942,     0.000,     0.000,     0.000,     0.000,  17,1,0
  2373,'99',1,  32,  99,     3.137,     1.570,     0.000,     0.000,     0.000,     0.000,  17,1,0
  2384,'99',1,  35,  99,    33.567,    16.795,     0.000,     0.000,     0.000,     0.000,  17,1,0
  2389,'99',1,  54,  99,     0.037,     0.019,     0.000,     0.000,     0.000,     0.000,  10,1,0
  2392,'37',1,  27,  37,    55.478,    27.739,     0.000,     0.000,     0.000,     0.000, 301,1,0
  2397,'99',1,  29,  99,    11.396,     5.702,     0.000,     0.000,     0.000,     0.000,  17,1,0
  2399,'99',1,  47,  99,     9.938,     4.973,     0.000,     0.000,     0.000,     0.000,  17,1,0
  2402,'99',1,  53,  99,     0.040,     0.020,     0.000,     0.000,     0.000,     0.000, 192,1,0
  2415,'99',1,  29,  99,     0.138,     0.069,     0.000,     0.000,     0.000,     0.000,  17,1,0
  2417,'99',1,  27,  99,    13.328,     6.669,     0.000,     0.000,     0.000,     0.000,  17,1,0
  2423,'99',1,  40,  99,     0.006,     0.003,     0.000,     0.000,     0.000,     0.000,  17,1,0
  2488,'99',1,  40,  99,     2.200,     1.101,     0.000,     0.000,     0.000,     0.000,  17,1,0
  2503,'99',1,  57,  99,     0.133,     0.066,     0.000,     0.000,     0.000,     0.000,   3,1,0
  2514,'99',1,  60,  99,     3.832,     1.917,     0.000,     0.000,     0.000,     0.000,   5,1,0
  2515,'99',1,  60,  99,     9.421,     4.714,     0.000,     0.000,     0.000,     0.000,  17,1,0
  2550,'99',1,   6,  99,     9.426,     4.716,     0.000,     0.000,     0.000,     0.000,   3,1,0
  2551,'99',1,   6,  99,     9.718,     4.862,     0.000,     0.000,     0.000,     0.000,   3,1,0
  2555,'99',1,   6,  99,    10.652,     5.329,     0.000,     0.000,     0.000,     0.000,   3,1,0
  2556,'99',1,   6,  99,     2.164,     1.083,     0.000,     0.000,     0.000,     0.000,   3,1,0
  2559,'99',1,   6,  99,     5.375,     2.689,     0.000,     0.000,     0.000,     0.000,   3,1,0
  2561,'99',1,   6,  99,    10.225,     5.116,     0.000,     0.000,     0.000,     0.000,   3,1,0
  2564,'99',1,   6,  99,     2.611,     1.306,     0.000,     0.000,     0.000,     0.000,   3,1,0
  2567,'99',1,   6,  99,    13.415,     6.712,     0.000,     0.000,     0.000,     0.000,   3,1,0
  2568,'99',1,   6,  99,     6.018,     3.011,     0.000,     0.000,     0.000,     0.000,   3,1,0
  2571,'99',1,   6,  99,     2.552,     1.277,     0.000,     0.000,     0.000,     0.000,   3,1,0
  2572,'99',1,   6,  99,     8.762,     4.384,     0.000,     0.000,     0.000,     0.000,   3,1,0
  2573,'99',1,   6,  99,     4.184,     2.093,     0.000,     0.000,     0.000,     0.000,   3,1,0
  2576,'99',1,   6,  99,    13.133,     6.571,     0.000,     0.000,     0.000,     0.000,   3,1,0
  2578,'99',1,   6,  99,     1.161,     0.581,     0.000,     0.000,     0.000,     0.000,   3,1,0
  2579,'99',1,   6,  99,     6.413,     3.209,     0.000,     0.000,     0.000,     0.000,   3,1,0
  2582,'99',1,   6,  99,     2.987,     1.494,     0.000,     0.000,     0.000,     0.000,   3,1,0
  2585,'99',1,   6,  99,     7.409,     3.707,     0.000,     0.000,     0.000,     0.000,   3,1,0
  2588,'99',1,   6,  99,    11.492,     5.750,     0.000,     0.000,     0.000,     0.000,   3,1,0
  2589,'99',1,   6,  99,     7.680,     3.843,     0.000,     0.000,     0.000,     0.000,   3,1,0
  2598,'99',1,   6,  99,    12.533,     6.271,     0.000,     0.000,     0.000,     0.000,   3,1,0
  2605,'99',1,  29,  99,     1.066,     0.533,     0.000,     0.000,     0.000,     0.000,  17,1,0
  2621,'99',1,  42,  99,     0.011,     0.005,     0.000,     0.000,     0.000,     0.000, 371,1,0
  2622,'99',1,  42,  99,     0.011,     0.005,     0.000,     0.000,     0.000,     0.000, 371,1,0
  2623,'99',1,  42,  99,     0.008,     0.004,     0.000,     0.000,     0.000,     0.000, 371,1,0
  2624,'99',1,  42,  99,     0.011,     0.005,     0.000,     0.000,     0.000,     0.000, 371,1,0
  2625,'99',1,  42,  99,     0.013,     0.007,     0.000,     0.000,     0.000,     0.000, 371,1,0
  2690,'99',1,  54,  99,    10.336,     5.171,     0.000,     0.000,     0.000,     0.000,  17,1,0
  2716,'99',1,  42,  99,     1.059,     0.530,     0.000,     0.000,     0.000,     0.000, 391,1,0
  2763,'99',1,  53,  99,     0.295,     0.148,     0.000,     0.000,     0.000,     0.000, 190,1,0
  2779,'99',1,  40,  99,     1.585,     0.793,     0.000,     0.000,     0.000,     0.000,  17,1,0
  2780,'99',1,  35,  99,     4.628,     2.316,     0.000,     0.000,     0.000,     0.000,  17,1,0
  2834,'99',1,  33,  99,    17.543,     8.777,     0.000,     0.000,     0.000,     0.000,  40,1,0
  2858,'99',1,  27,  99,     4.747,     2.375,     0.000,     0.000,     0.000,     0.000, 321,1,0
  2901,'99',1,  53,  99,     0.037,     0.019,     0.000,     0.000,     0.000,     0.000,  44,1,0
  2920,'99',1,  61,  99,     4.686,     2.345,     0.000,     0.000,     0.000,     0.000,  17,1,0
  2921,'99',1,  61,  99,     4.686,     2.345,     0.000,     0.000,     0.000,     0.000,  17,1,0
  2934,'99',1,  33,  99,    17.543,     8.777,     0.000,     0.000,     0.000,     0.000,  40,1,0
  3017,'99',1,  29,  99,     7.755,     3.880,     0.000,     0.000,     0.000,     0.000,  17,1,0
  3020,'99',1,  29,  99,    10.289,     5.148,     0.000,     0.000,     0.000,     0.000,  17,1,0
  3036,'99',1,  30,  99,     5.510,     2.757,     0.000,     0.000,     0.000,     0.000,  17,1,0
  3038,'99',1,  30,  99,     3.560,     1.781,     0.000,     0.000,     0.000,     0.000,  17,1,0
  3040,'99',1,  60,  99,    18.063,     9.038,     0.000,     0.000,     0.000,     0.000,  17,1,0
  3041,'99',1,  40,  99,     8.170,     4.088,     0.000,     0.000,     0.000,     0.000,  17,1,0
  3047,'99',1,  60,  99,    11.561,     5.784,     0.000,     0.000,     0.000,     0.000,  17,1,0
  3053,'99',1,  48,  99,     3.102,     1.552,     0.000,     0.000,     0.000,     0.000,  17,1,0
...
0 / END OF LOAD DATA, BEGIN FIXED SHUNT DATA
  1089,'1 ',0,     0.000,    36.000
0 / END OF FIXED SHUNT DATA, BEGIN GENERATOR DATA
    14,'1 ',    16.139,    -3.885,     8.200,    -5.600,1.02500,     0,    21.000, 0.00000E+0, 1.30000E-1, 0.00000E+0, 0.00000E+0,1.00000,1,  100.0,    17.000,     6.000,   4,1.0000
    33,'1 ',     0.000,     0.000,     4.100,    -2.800,1.02200,     0,     9.300, 2.00000E-3, 2.10000E-1, 0.00000E+0, 0.00000E+0,1.00000,0,  100.0,     8.400,    -0.500,  17,1.0000
    33,'2 ',     0.000,     0.000,     4.100,    -2.800,1.02200,     0,     9.300, 2.00000E-3, 2.20000E-1, 0.00000E+0, 0.00000E+0,1.00000,0,  100.0,     8.400,    -0.500,  17,1.0000
    43,'1 ',     0.000,     0.000,     0.000,     0.000,1.03000,     0,     4.000, 0.00000E+0, 2.50000E-1, 0.00000E+0, 0.00000E+0,1.00000,0,  100.0,     0.000,    -4.000,  29,1.0000
    43,'2 ',     0.000,     0.000,     0.000,     0.000,1.03000,     0,     4.000, 0.00000E+0, 2.50000E-1, 0.00000E+0, 0.00000E+0,1.00000,0,  100.0,     0.000,    -4.000,  29,1.0000
    43,'3 ',     0.000,     0.000,     0.000,     0.000,1.03000,     0,     4.000, 0.00000E+0, 2.50000E-1, 0.00000E+0, 0.00000E+0,1.00000,0,  100.0,     0.000,    -4.000,  29,1.0000
    43,'4 ',     0.000,     0.000,     0.000,     0.000,1.03000,     0,     4.000, 0.00000E+0, 2.50000E-1, 0.00000E+0, 0.00000E+0,1.00000,0,  100.0,     0.000,    -4.000,  29,1.0000
    43,'G1',    96.000,    41.900,    41.900,   -28.400,1.03000,     0,    96.100, 1.66000E-3, 2.10000E-1, 0.00000E+0, 0.00000E+0,1.00000,1,  100.0,    96.000,     0.000,  29,1.0000
    43,'G2',     0.000,    -4.100,    -4.100,    -4.100,1.03000,     0,     9.000, 0.00000E+0, 1.67000E-1, 0.00000E+0, 0.00000E+0,1.00000,0,  100.0,     0.000,    -9.000,  29,1.0000
    43,'GT',    99.400,    48.100,    48.100,   -32.700,1.03000,     0,   110.400, 4.00000E-3, 2.19000E-1, 0.00000E+0, 0.00000E+0,1.00000,1,  100.0,    99.400,    20.000,  29,1.0000
    43,'M1',     0.000,     0.000,     0.000,     0.000,1.03000,     0,    12.800, 0.00000E+0, 3.20000E-1, 0.00000E+0, 0.00000E+0,1.00000,0,  100.0,     0.000,   -11.190,  29,1.0000
    43,'M2',     0.000,     0.000,     0.000,     0.000,1.03000,     0,    12.800, 0.00000E+0, 3.20000E-1, 0.00000E+0, 0.00000E+0,1.00000,0,  100.0,     0.000,   -11.190,  29,1.0000
    43,'M3',     0.000,     0.000,     0.000,     0.000,1.03000,     0,    12.800, 0.00000E+0, 3.20000E-1, 0.00000E+0, 0.00000E+0,1.00000,0,  100.0,     0.000,   -11.190,  29,1.0000
    43,'M4',     0.000,     0.000,     0.000,     0.000,1.03000,     0,    12.800, 0.00000E+0, 3.20000E-1, 0.00000E+0, 0.00000E+0,1.00000,0,  100.0,     0.000,   -11.190,  29,1.0000
    43,'M5',     0.000,     0.000,     0.000,     0.000,1.03000,     0,    12.800, 0.00000E+0, 3.20000E-1, 0.00000E+0, 0.00000E+0,1.00000,0,  100.0,     0.000,   -11.190,  29,1.0000
    43,'M6',     0.000,     0.000,     0.000,     0.000,1.03000,     0,    25.600, 0.00000E+0, 2.33000E-1, 0.00000E+0, 0.00000E+0,1.00000,0,  100.0,     0.000,   -25.600,  29,1.0000
    43,'ST',    43.786,    46.300,    46.300,   -31.400,1.03000,     0,   106.300, 3.84000E-3, 1.80000E-1, 0.00000E+0, 0.00000E+0,1.00000,1,  100.0,    95.700,    10.000,  29,1.0000
    50,'1 ',    33.373,    31.000,    31.000,   -21.100,1.03000,     0,    71.200, 0.00000E+0, 1.81000E-1, 0.00000E+0, 0.00000E+0,1.00000,1,  100.0,    64.100,    20.000, 211,1.0000
    61,'G1',    82.640,   -32.700,    48.200,   -32.700,1.03000,     0,   110.600, 0.00000E+0, 3.00000E-1, 0.00000E+0, 0.00000E+0,1.00000,1,  100.0,    99.500,     0.000, 191,1.0000
    61,'G2',     2.900,    -4.017,    48.200,   -32.700,1.03000,     0,   110.600, 0.00000E+0, 3.00000E-1, 0.00000E+0, 0.00000E+0,1.00000,0,  100.0,    99.500,     0.000, 191,1.0000
    61,'GT',    21.600,   -28.700,    42.300,   -28.700,1.03000,     0,    97.000, 4.00000E-3, 2.00000E-1, 0.00000E+0, 0.00000E+0,1.00000,0,  100.0,    95.000,    17.000, 191,1.0000
    61,'M1',    -1.307,    -2.596,     0.000,    -5.800,1.03000,     0,     9.900, 6.40000E-3, 1.98000E-1, 0.00000E+0, 0.00000E+0,1.00000,1,  100.0,     0.000,    -9.698, 191,1.0000
    61,'M2',    -1.634,     0.000,     0.000,     0.000,1.03000,     0,    12.500, 5.50000E-3, 2.50000E-1, 0.00000E+0, 0.00000E+0,1.00000,1,  100.0,     0.000,   -12.520, 191,1.0000
    61,'ST',    12.000,   -15.000,    23.800,   -15.000,1.03000,     0,    50.600, 5.00000E-3, 2.00000E-1, 0.00000E+0, 0.00000E+0,1.00000,0,  100.0,    45.500,    12.000, 191,1.0000
   102,'1 ',    55.000,    -1.382,    28.600,   -19.400,0.97300,     0,    65.500, 1.95000E-3, 3.40000E-1, 0.00000E+0, 0.00000E+0,1.00000,0,  100.0,    60.000,     0.000,  17,1.0000
   108,'2 ',    30.325,    -6.157,    28.600,   -19.400,0.97200,     0,    65.500, 1.95000E-3, 3.40000E-1, 0.00000E+0, 0.00000E+0,1.00000,1,  100.0,    60.000,     0.000,  17,1.0000
   130,'3A',   333.526,    11.486,   188.900,  -128.200,1.02000,     0,   483.300, 5.10000E-3, 2.07000E-1, 0.00000E+0, 0.00000E+0,1.00000,1,  100.0,   395.000,   155.500,  17,1.0000
   151,'1 ',     5.309,    36.636,    80.200,   -54.400,1.02500,     0,   184.000, 2.00000E-3, 2.42000E-1, 0.00000E+0, 0.00000E+0,1.00000,1,  100.0,   160.000,     0.000,  17,1.0000
   154,'2 ',     2.500,    20.884,    90.200,   -61.200,0.98000,     0,   207.000, 2.00000E-3, 3.30000E-1, 0.00000E+0, 0.00000E+0,1.00000,0,  100.0,   190.000,    -3.100,  17,1.0000
   172,'1 ',     5.600,     0.975,     2.700,    -1.800,1.02500,     0,     6.300, 2.00000E-3, 2.00000E-1, 0.00000E+0, 0.00000E+0,1.00000,1,  100.0,     5.600,     0.000,  17,1.0000
   172,'2 ',     1.206,     0.210,     1.600,    -1.100,1.02500,     0,     3.800, 2.00000E-3, 2.00000E-1, 0.00000E+0, 0.00000E+0,1.00000,1,  100.0,     3.400,     0.000,  17,1.0000
   172,'3 ',     3.000,     0.340,     1.600,    -1.100,1.02500,     0,     3.800, 2.00000E-3, 2.00000E-1, 0.00000E+0, 0.00000E+0,1.00000,0,  100.0,     3.400,     0.000,  17,1.0000
   172,'4 ',     4.500,     0.511,     2.700,    -1.800,1.02500,     0,     6.300, 2.00000E-3, 2.00000E-1, 0.00000E+0, 0.00000E+0,1.00000,0,  100.0,     5.600,     0.000,  17,1.0000
   174,'1 ',    17.852,     8.872,    31.600,   -18.000,1.04663,     0,    54.600, 2.00000E-3, 2.20000E-1, 0.00000E+0, 0.00000E+0,1.00000,1,  100.0,    50.000,     0.000,  17,1.0000
   176,'1 ',     0.800,     8.700,     8.700,    -5.900,1.04775,     0,    20.000, 1.00000E-3, 2.50000E-1, 0.00000E+0, 0.00000E+0,1.00000,1,  100.0,    18.000,    -0.500, 194,1.0000
   176,'2 ',     0.000,     3.635,     9.600,    -5.800,1.04775,     0,    20.000, 1.00000E-3, 3.30000E-1, 0.00000E+0, 0.00000E+0,1.00000,0,  100.0,    18.000,    -2.000, 194,1.0000
   181,'2 ',     2.868,     3.413,     7.800,    -5.300,1.00000,     0,    15.000, 2.00000E-3, 1.70000E-1, 0.00000E+0, 0.00000E+0,1.00000,1,  100.0,    16.200,     0.000,  17,1.0000
   181,'3 ',     0.800,     1.915,     8.700,    -5.900,1.00000,     0,    15.000, 2.00000E-3, 1.70000E-1, 0.00000E+0, 0.00000E+0,1.00000,0,  100.0,    18.000,     0.000,  17,1.0000
   181,'4A',     1.200,     2.872,    12.800,    -8.700,1.00000,     0,    31.100, 1.00000E-3, 3.70000E-1, 0.00000E+0, 0.00000E+0,1.00000,0,  100.0,    26.500,    -0.500,  17,1.0000
   183,'1 ',     5.848,    -5.300,     7.800,    -5.300,1.01500,     0,    18.000, 2.00000E-3, 2.10000E-1, 0.00000E+0, 0.00000E+0,1.00000,1,  100.0,    17.400,     0.000,  17,1.0000
   189,'1 ',    -7.797,     0.000,     0.000,     0.000,1.00000,     0,    15.000, 0.00000E+0, 2.50000E-1, 0.00000E+0, 0.00000E+0,1.00000,1,  100.0,     0.000,   -15.000,  17,1.0000
   189,'2 ',    -7.797,     0.000,     0.000,     0.000,1.00000,     0,    15.000, 0.00000E+0, 2.50000E-1, 0.00000E+0, 0.00000E+0,1.00000,1,  100.0,     0.000,   -15.000,  17,1.0000
   190,'2A',    10.700,   -10.799,    27.100,   -18.400,1.00000,     0,    62.200, 1.00000E-3, 3.20000E-1, 0.00000E+0, 0.00000E+0,1.00000,0,  100.0,    56.000,     0.000,  17,1.0000
   196,'1 ',     5.000,     1.900,     1.900,    -1.300,1.04786,     0,     4.300, 2.00000E-3, 2.00000E-1, 0.00000E+0, 0.00000E+0,1.00000,1,  100.0,     5.000,     0.000,  17,1.0000
   196,'2 ',     0.511,     1.900,     1.900,    -1.300,1.04786,     0,     4.300, 2.00000E-3, 2.00000E-1, 0.00000E+0, 0.00000E+0,1.00000,1,  100.0,     5.000,     0.000,  17,1.0000
   196,'3 ',     9.000,     4.214,     4.900,    -3.300,1.04786,     0,    11.300, 2.00000E-3, 3.00000E-1, 0.00000E+0, 0.00000E+0,1.00000,0,  100.0,    10.000,     0.000,  17,1.0000
   197,'2 ',     6.231,     5.375,    15.300,   -10.400,1.04761,     0,    35.000, 2.00000E-3, 2.00000E-1, 0.00000E+0, 0.00000E+0,1.00000,1,  100.0,    33.000,    -1.000,  17,1.0000
   214,'1 ',     0.000,     6.500,     6.500,    -4.400,1.03415,     0,    15.000, 2.00000E-3, 1.60000E-1, 0.00000E+0, 0.00000E+0,1.00000,0,  100.0,    14.100,     0.000,  17,1.0000
   222,'1 ',     2.127,     0.983,     4.900,    -3.300,1.03000,     0,    11.300, 2.00000E-3, 2.50000E-1, 0.00000E+0, 0.00000E+0,1.00000,1,  100.0,    11.000,     0.000,  17,1.0000
   248,'1 ',   100.800,    37.829,    48.800,   -33.100,1.04000,     0,   112.000, 0.00000E+0, 2.27100E-1, 0.00000E+0, 0.00000E+0,1.00000,1,  100.0,   100.800,    16.000,  36,1.0000
   248,'2 ',    73.515,    27.589,    48.800,   -33.100,1.04000,     0,   112.000, 0.00000E+0, 2.27100E-1, 0.00000E+0, 0.00000E+0,1.00000,1,  100.0,   100.800,    16.000,  36,1.0000
   255,'1 ',     2.613,     0.000,     0.000,     0.000,1.02560,     0,    14.000, 3.00000E-1, 2.30000E-1, 0.00000E+0, 0.00000E+0,1.00000,1,  100.0,    11.300,     0.000,  17,1.0000
   265,'1 ',     1.310,     0.000,     0.000,     0.000,1.02551,     0,    13.800, 3.00000E-1, 2.30000E-1, 0.00000E+0, 0.00000E+0,1.00000,1,  100.0,    10.100,     0.000,  17,1.0000
   268,'1 ',    -4.083,     0.000,     0.000,     0.000,1.00000,     0,    22.400, 0.00000E+0, 1.60000E-1, 0.00000E+0, 0.00000E+0,1.00000,1,  100.0,     0.000,   -22.400,  17,1.0000
   268,'E1',    -0.408,    -0.204,     0.000,     0.000,1.00000,     0,     2.600, 0.00000E+0, 1.60000E-1, 0.00000E+0, 0.00000E+0,1.00000,0,  100.0,     0.000,    -2.600,  17,1.0000
   268,'F1',    -1.225,     0.000,     0.000,     0.000,1.00000,     0,     8.200, 0.00000E+0, 1.60000E-1, 0.00000E+0, 0.00000E+0,1.00000,1,  100.0,     0.000,    -8.200,  17,1.0000
   268,'F2',    -1.225,     0.000,     0.000,     0.000,1.00000,     0,     8.200, 0.00000E+0, 1.60000E-1, 0.00000E+0, 0.00000E+0,1.00000,1,  100.0,     0.000,    -8.200,  17,1.0000
   287,'1 ',   -12.010,     0.000,     0.000,     0.000,1.01747,     0,    22.400, 0.00000E+0, 1.60000E-1, 0.00000E+0, 0.00000E+0,1.00000,1,  100.0,     0.000,   -22.400,  17,1.0000
   287,'E2',    -0.632,     0.000,     0.000,     0.000,1.01747,     0,     2.600, 0.00000E+0, 1.60000E-1, 0.00000E+0, 0.00000E+0,1.00000,1,  100.0,     0.000,    -2.600,  17,1.0000
   288,'1 ',    -4.083,     0.000,     0.000,     0.000,1.00723,     0,    22.400, 0.00000E+0, 1.60000E-1, 0.00000E+0, 0.00000E+0,1.00000,1,  100.0,     0.000,   -22.400,  17,1.0000
   289,'1 ',    -3.266,     0.000,     0.000,     0.000,1.00747,     0,    18.700, 0.00000E+0, 2.11000E-1, 0.00000E+0, 0.00000E+0,1.00000,1,  100.0,     0.000,   -18.700,  17,1.0000
   289,'2 ',    -3.266,     0.000,     0.000,     0.000,1.00747,     0,    18.700, 0.00000E+0, 2.11000E-1, 0.00000E+0, 0.00000E+0,1.00000,1,  100.0,     0.000,   -18.700,  17,1.0000
   332,'1 ',     8.144,    -1.328,     5.500,    -3.700,1.04763,     0,    12.500, 0.00000E+0, 1.30000E-1, 0.00000E+0, 0.00000E+0,1.00000,1,  100.0,    11.300,     0.000,   4,1.0000
   342,'4A',   301.028,    27.645,   181.000,  -123.000,1.02000,     0,   483.000, 2.00000E-3, 2.50000E-1, 0.00000E+0, 0.00000E+0,1.00000,1,  100.0,   430.000,   169.000,  17,1.0000
   345,'5A',   330.851,    30.515,   181.000,  -123.000,1.02000,     0,   483.700, 2.00000E-3, 2.50000E-1, 0.00000E+0, 0.00000E+0,1.00000,1,  100.0,   435.400,   150.000,  17,1.0000
   350,'6A',   398.812,    42.534,   210.000,   -50.000,1.02000,     0,   472.800, 2.00000E-3, 2.47000E-1, 0.00000E+0, 0.00000E+0,1.00000,1,  100.0,   425.000,   150.000,  17,1.0000
   377,'1 ',     0.000,    -0.782,     2.400,    -1.600,1.03085,     0,     5.600, 2.00000E-3, 2.00000E-1, 0.00000E+0, 0.00000E+0,1.00000,0,  100.0,     5.000,     0.000,  17,1.0000
   381,'1 ',     0.540,    -1.200,     1.700,    -1.200,1.04255,     0,     4.000, 2.00000E-3, 2.00000E-1, 0.00000E+0, 0.00000E+0,1.00000,1,  100.0,     3.600,     0.000,  17,1.0000
   383,'1 ',   105.981,    48.000,    48.000,   -37.000,1.01800,     0,   165.000, 7.40000E-3, 1.41000E-1, 0.00000E+0, 0.00000E+0,1.00000,1,  100.0,   158.000,    55.000,  17,1.0000
   383,'2 ',    57.000,    18.854,    53.000,   -47.000,1.01800,     0,   171.000, 7.40000E-3, 1.41000E-1, 0.00000E+0, 0.00000E+0,1.00000,0,  100.0,   163.000,    57.000,  17,1.0000
   383,'3 ',    50.000,    16.539,    35.000,   -43.000,1.01800,     0,   157.000, 7.50000E-3, 1.31000E-1, 0.00000E+0, 0.00000E+0,1.00000,0,  100.0,   133.000,    50.000,  17,1.0000
   403,'3 ',   492.378,   -99.900,   310.400,   -99.900,1.03500,   610,   586.000, 4.00000E-3, 2.77000E-1, 0.00000E+0, 0.00000E+0,1.00000,1,  100.0,   498.000,   142.000,  17,1.0000
   405,'1 ',    80.900,   -24.700,    25.800,   -24.700,1.05000,     0,    93.900, 3.30000E-3, 1.60000E-1, 0.00000E+0, 0.00000E+0,1.00000,1,  100.0,    82.500,     8.000, 251,1.0000
   407,'1 ',     0.000,     0.000,     6.000,    -4.100,1.02756,     0,    13.800, 0.00000E+0, 2.30000E-1, 0.00000E+0, 0.00000E+0,1.00000,0,  100.0,    12.400,     0.000,  17,1.0000
   408,'1 ',    24.331,     5.367,    15.400,   -10.500,1.02671,     0,    35.300, 0.00000E+0, 1.80000E-1, 0.00000E+0, 0.00000E+0,1.00000,1,  100.0,    31.800,     0.000,  17,1.0000
   414,'1 ',     0.000,     0.000,    10.000,    -6.800,1.02000,     0,    22.800, 0.00000E+0, 2.40000E-1, 0.00000E+0, 0.00000E+0,1.00000,0,  100.0,    20.600,     0.000,  17,1.0000
   422,'1A',   368.834,    12.564,   208.000,  -110.000,1.00000,     0,   477.000, 5.07000E-3, 3.00000E-1, 0.00000E+0, 0.00000E+0,1.00000,1,  100.0,   415.000,   164.000,  17,1.0000
   424,'2A',   306.929,     4.392,   208.000,  -110.000,1.00000,     0,   477.000, 5.07000E-3, 3.00000E-1, 0.00000E+0, 0.00000E+0,1.00000,1,  100.0,   415.000,   199.000,  17,1.0000
   450,'1 ',     0.000,     0.000,     2.400,    -1.600,1.04788,     0,     7.000, 0.00000E+0, 2.00000E-1, 0.00000E+0, 0.00000E+0,1.00000,0,  100.0,     6.300,     0.000,  17,1.0000
   479,'1 ',     2.200,     8.700,     8.700,    -5.900,1.04761,     0,    20.000, 2.00000E-3, 2.50000E-1, 0.00000E+0, 0.00000E+0,1.00000,0,  100.0,    18.000,    -1.000,  17,1.0000
   490,'3 ',   141.200,    98.048,   255.400,  -173.300,1.02000,     0,   586.000, 1.89000E-3, 2.77000E-1, 0.00000E+0, 0.00000E+0,1.00000,1,  100.0,   527.400,   142.000,   5,1.0000
   491,'1 ',   422.000,   112.268,   138.400,   -34.400,1.02000,     0,   482.400, 1.89000E-3, 2.50000E-1, 0.00000E+0, 0.00000E+0,1.00000,1,  100.0,   422.000,   123.600,   5,1.0000
   492,'2A',   422.000,   109.587,   208.000,  -112.000,1.02000,     0,   482.400, 1.85000E-3, 2.50000E-1, 0.00000E+0, 0.00000E+0,1.00000,1,  100.0,   422.000,   200.000,   5,1.0000
   680,'1 ',    56.300,    14.666,    27.200,   -18.500,1.02000,     0,    62.500, 0.00000E+0, 2.10000E-1, 0.00000E+0, 0.00000E+0,1.00000,1,  100.0,    56.300,     0.000,  17,1.0000
   680,'10',    31.900,     8.310,    15.400,   -10.500,1.02000,     0,    35.400, 0.00000E+0, 2.20000E-1, 0.00000E+0, 0.00000E+0,1.00000,1,  100.0,    31.900,    12.000,  17,1.0000
   680,'11',    12.000,     3.126,    15.400,   -10.500,1.02000,     0,    35.400, 0.00000E+0, 2.20000E-1, 0.00000E+0, 0.00000E+0,1.00000,1,  100.0,    31.900,    12.000,  17,1.0000
   680,'12',     4.000,     2.959,    18.600,   -12.600,1.02000,     0,    42.600, 0.00000E+0, 1.60000E-1, 0.00000E+0, 0.00000E+0,1.00000,0,  100.0,    38.300,     4.000,  17,1.0000
   680,'14',    17.000,    12.574,    27.700,   -12.600,1.02000,     0,    67.500, 1.40000E-3, 1.90000E-1, 0.00000E+0, 0.00000E+0,1.00000,0,  100.0,    45.000,    17.000,  17,1.0000
   680,'15',    17.000,    12.574,    22.000,   -14.100,1.02000,     0,    71.200, 5.30000E-3, 1.44000E-1, 0.00000E+0, 0.00000E+0,1.00000,0,  100.0,    43.000,    17.000,  17,1.0000
   680,'3 ',     4.000,     2.959,    18.500,   -12.600,1.02000,     0,    42.600, 0.00000E+0, 1.60000E-1, 0.00000E+0, 0.00000E+0,1.00000,0,  100.0,    38.300,     4.000,  17,1.0000
   680,'9 ',     0.000,     0.000,    19.600,   -13.300,1.02000,     0,    44.900, 0.00000E+0, 2.60000E-1, 0.00000E+0, 0.00000E+0,1.00000,0,  100.0,    40.400,     0.000,  17,1.0000
  1031,'1 ',     0.000,     0.000,    13.900,    -9.500,1.02000,     0,    32.000, 3.50000E-3, 7.00000E-2, 0.00000E+0, 0.00000E+0,1.00000,0,  100.0,    28.800,     4.000,   1,1.0000
  1032,'2 ',     4.000,    11.809,    25.000,   -18.000,1.02000,     0,    49.000, 7.20000E-3, 1.45000E-1, 0.00000E+0, 0.00000E+0,1.00000,1,  100.0,    44.100,     4.000,   1,1.0000
  1033,'3 ',     0.000,     0.000,     9.500,    -6.400,1.02000,     0,    21.700, 4.50000E-3, 9.00000E-2, 0.00000E+0, 0.00000E+0,1.00000,0,  100.0,    19.500,     3.000,   1,1.0000
  1035,'4 ',    39.128,   -17.300,    25.500,   -17.300,1.02000,     0,    58.600, 1.40000E-3, 1.62000E-1, 0.00000E+0, 0.00000E+0,1.00000,1,  100.0,    52.700,     9.000,  21,1.0000
  1037,'5 ',    17.265,    -3.656,    25.500,   -17.300,1.02000,     0,    60.000, 1.40000E-3, 1.98000E-1, 0.00000E+0, 0.00000E+0,1.00000,1,  100.0,    52.700,     2.000,  21,1.0000
  1087,'2 ',     5.000,    -9.200,    13.400,    -9.200,1.00000,     0,    29.500, 6.00000E-3, 1.40000E-1, 0.00000E+0, 0.00000E+0,1.00000,0,  100.0,    25.100,     5.000,  33,1.0000
  1089,'1A',    30.047,    -5.916,    20.500,   -13.900,1.00000,     0,    47.100, 9.30000E-3, 1.88000E-1, 0.00000E+0, 0.00000E+0,1.00000,1,  100.0,    40.000,     2.270,  33,1.0000
  1101,'2 ',    16.547,    -9.500,    13.900,    -9.500,1.05000,     0,    32.000, 3.10000E-3, 1.98000E-1, 0.00000E+0, 0.00000E+0,1.00000,1,  100.0,    28.800,     0.000,  30,1.0000
  1146,'1A',    14.892,   -16.200,    30.000,   -16.200,1.01000,     0,    57.900, 0.00000E+0, 1.55000E-1, 0.00000E+0, 0.00000E+0,1.00000,1,  100.0,    49.200,    10.000,  39,1.0000
  1148,'1 ',    76.904,   -32.269,    72.600,   -49.300,1.02600,     0,   167.000, 3.00000E-3, 1.85000E-1, 0.00000E+0, 0.00000E+0,1.00000,1,  100.0,   151.100,     0.000,   1,1.0000
  1167,'1 ',     0.000,     0.000,     5.400,    -3.700,1.03000,     0,    12.500, 4.50000E-3, 1.68000E-1, 0.00000E+0, 0.00000E+0,1.00000,0,  100.0,    11.300,     0.750,   1,1.0000
  1168,'2 ',     0.000,     0.000,     4.100,    -3.700,1.00000,     0,     9.400, 5.00000E-3, 1.68000E-1, 0.00000E+0, 0.00000E+0,1.00000,0,  100.0,     8.400,     0.750,   1,1.0000
  1171,'1 ',     0.000,     0.000,    25.500,   -17.300,1.02000,     0,    60.000, 1.40000E-3, 1.98000E-1, 0.00000E+0, 0.00000E+0,1.00000,0,  100.0,    52.700,     9.000,   1,1.0000
  1173,'2 ',     0.000,     0.000,    25.500,   -17.300,1.00000,     0,    72.000, 5.00000E-4, 1.60000E-1, 0.00000E+0, 0.00000E+0,1.00000,0,  100.0,    52.700,     2.000,   1,1.0000
  1205,'1 ',   100.000,    44.800,    44.800,   -30.400,1.12000,     0,   102.800, 4.00000E-3, 2.30000E-1, 0.00000E+0, 0.00000E+0,1.00000,1,  100.0,   100.000,    16.450,   9,1.0000
  1205,'11',    22.000,    27.000,    27.000,   -13.000,1.12000,     0,    33.800, 4.50000E-3, 1.47000E-1, 0.00000E+0, 0.00000E+0,1.00000,1,  100.0,    22.000,     2.000,   9,1.0000
  1205,'12',    86.000,    39.700,    39.700,   -30.000,1.12000,     0,    93.800, 3.40000E-3, 1.36000E-1, 0.00000E+0, 0.00000E+0,1.00000,1,  100.0,    86.000,    23.000,   9,1.0000
  1205,'15',     0.000,     0.000,     0.000,     0.000,1.12000,     0,    10.000, 0.00000E+0, 2.75000E-1, 0.00000E+0, 0.00000E+0,1.00000,0,  100.0,     0.000,    -8.000,   9,1.0000
  1205,'16',     0.000,     0.000,     0.000,     0.000,1.12000,     0,    10.000, 0.00000E+0, 2.75000E-1, 0.00000E+0, 0.00000E+0,1.00000,0,  100.0,     0.000,   -10.000,   9,1.0000
...